/*---------------------------------------------------------------------------*\
| =========                 |                                                 |
| \\      /  F ield         | OpenFOAM: The Open Source CFD Toolbox           |
|  \\    /   O peration     | Version:  1.5                                   |
|   \\  /    A nd           | Web:      http://www.openfoam.org               |
|    \\/     M anipulation  |                                                 |
\*---------------------------------------------------------------------------*/

FoamFile
{
    version         2.0;
    format          ascii;
    class           dictionary;
    object          fvSchemes;
}

// * * * * * * * * * * * * * * * * * * * * * * * * * * * * * * * * * * * * * //

ddtSchemes
{
    default steadyState;
}

gradSchemes
{
    default       Gauss linear;
    grad(T)       Gauss linear;
}

divSchemes
{
    default       Gauss linear;  
}


laplacianSchemes
{
    default         				none;
    laplacian(k,T) 				Gauss linear corrected;
    laplacian(k,p)				Gauss linear corrected;
    laplacian(diffusivity,cellDisplacement)	Gauss linear corrected;
}

curlSchemes
{
    default         none;
}

interpolationSchemes
{
    default         linear;
}

// ************************************************************************* //
